136019
 OpenBabel02212621332D

 48 54  0  0  0  0  0  0  0  0999 V2000
    3.8743   -0.5000    0.0000 C   0  0  0  0  0  0  0  0  0  0  0  0
    3.8743    0.5000    0.0000 C   0  0  0  0  0  0  0  0  0  0  0  0
    4.7403   -1.0000    0.0000 C   0  0  0  0  0  0  0  0  0  0  0  0
    4.7403    1.0000    0.0000 C   0  0  0  0  0  0  0  0  0  0  0  0
    5.6063   -0.5000    0.0000 C   0  0  0  0  0  0  0  0  0  0  0  0
    5.6063    0.5000    0.0000 C   0  0  0  0  0  0  0  0  0  0  0  0
    2.9643   -1.0069    0.0000 C   0  0  0  0  0  0  0  0  0  0  0  0
    2.9643    1.0069    0.0000 C   0  0  0  0  0  0  0  0  0  0  0  0
    4.7564   -2.0415    0.0000 C   0  0  0  0  0  0  0  0  0  0  0  0
    4.7564    2.0415    0.0000 C   0  0  0  0  0  0  0  0  0  0  0  0
    6.5003   -1.0347    0.0000 C   0  0  0  0  0  0  0  0  0  0  0  0
    6.5003    1.0347    0.0000 C   0  0  0  0  0  0  0  0  0  0  0  0
    2.9563   -2.0485    0.0000 C   0  0  0  0  0  0  0  0  0  0  0  0
    2.9563    2.0485    0.0000 C   0  0  0  0  0  0  0  0  0  0  0  0
    3.8583   -2.5693    0.0000 C   0  0  0  0  0  0  0  0  0  0  0  0
    3.8583    2.5693    0.0000 C   0  0  0  0  0  0  0  0  0  0  0  0
    7.4063   -0.5208    0.0000 C   0  0  0  0  0  0  0  0  0  0  0  0
    7.4063    0.5208    0.0000 C   0  0  0  0  0  0  0  0  0  0  0  0
    2.0084   -2.5764    0.0000 C   0  0  0  0  0  0  0  0  0  0  0  0
    2.0084    2.5764    0.0000 C   0  0  0  0  0  0  0  0  0  0  0  0
    3.8751   -3.6541    0.0000 C   0  0  0  0  0  0  0  0  0  0  0  0
    3.8751    3.6541    0.0000 C   0  0  0  0  0  0  0  0  0  0  0  0
    8.3375   -1.0777    0.0000 C   0  0  0  0  0  0  0  0  0  0  0  0
    8.3375    1.0777    0.0000 C   0  0  0  0  0  0  0  0  0  0  0  0
    2.9396    4.2039    0.0000 C   0  0  0  0  0  0  0  0  0  0  0  0
    2.0000    3.6614    0.0000 C   0  0  0  0  0  0  0  0  0  0  0  0
    2.0000   -3.6614    0.0000 C   0  0  0  0  0  0  0  0  0  0  0  0
    2.9396   -4.2039    0.0000 C   0  0  0  0  0  0  0  0  0  0  0  0
    9.2813   -0.5425    0.0000 C   0  0  0  0  0  0  0  0  0  0  0  0
    9.2813    0.5425    0.0000 C   0  0  0  0  0  0  0  0  0  0  0  0
    2.4310   -0.6907    0.0000 H   0  0  0  0  0  0  0  0  0  0  0  0
    2.4310    0.6907    0.0000 H   0  0  0  0  0  0  0  0  0  0  0  0
    5.2969   -2.3453    0.0000 H   0  0  0  0  0  0  0  0  0  0  0  0
    5.2969    2.3453    0.0000 H   0  0  0  0  0  0  0  0  0  0  0  0
    6.4931   -1.6546    0.0000 H   0  0  0  0  0  0  0  0  0  0  0  0
    6.4931    1.6546    0.0000 H   0  0  0  0  0  0  0  0  0  0  0  0
    1.4751   -2.2602    0.0000 H   0  0  0  0  0  0  0  0  0  0  0  0
    1.4751    2.2602    0.0000 H   0  0  0  0  0  0  0  0  0  0  0  0
    4.4155   -3.9579    0.0000 H   0  0  0  0  0  0  0  0  0  0  0  0
    4.4155    3.9579    0.0000 H   0  0  0  0  0  0  0  0  0  0  0  0
    8.3303   -1.6977    0.0000 H   0  0  0  0  0  0  0  0  0  0  0  0
    8.3303    1.6977    0.0000 H   0  0  0  0  0  0  0  0  0  0  0  0
    2.9420    4.8239    0.0000 H   0  0  0  0  0  0  0  0  0  0  0  0
    1.4619    3.9693    0.0000 H   0  0  0  0  0  0  0  0  0  0  0  0
    1.4619   -3.9693    0.0000 H   0  0  0  0  0  0  0  0  0  0  0  0
    2.9420   -4.8239    0.0000 H   0  0  0  0  0  0  0  0  0  0  0  0
    9.8170   -0.8546    0.0000 H   0  0  0  0  0  0  0  0  0  0  0  0
    9.8170    0.8546    0.0000 H   0  0  0  0  0  0  0  0  0  0  0  0
  1  2  1  0  0  0  0
  1  3  1  0  0  0  0
  1  7  2  0  0  0  0
  2  4  1  0  0  0  0
  2  8  2  0  0  0  0
  3  5  1  0  0  0  0
  3  9  2  0  0  0  0
  4  6  1  0  0  0  0
  4 10  2  0  0  0  0
  5  6  1  0  0  0  0
  5 11  2  0  0  0  0
  6 12  2  0  0  0  0
  7 13  1  0  0  0  0
  7 31  1  0  0  0  0
  8 14  1  0  0  0  0
  8 32  1  0  0  0  0
  9 15  1  0  0  0  0
  9 33  1  0  0  0  0
 10 16  1  0  0  0  0
 10 34  1  0  0  0  0
 11 17  1  0  0  0  0
 11 35  1  0  0  0  0
 12 18  1  0  0  0  0
 12 36  1  0  0  0  0
 13 15  1  0  0  0  0
 13 19  2  0  0  0  0
 14 16  1  0  0  0  0
 14 20  2  0  0  0  0
 15 21  2  0  0  0  0
 16 22  2  0  0  0  0
 17 18  1  0  0  0  0
 17 23  2  0  0  0  0
 18 24  2  0  0  0  0
 19 27  1  0  0  0  0
 19 37  1  0  0  0  0
 20 26  1  0  0  0  0
 20 38  1  0  0  0  0
 21 28  1  0  0  0  0
 21 39  1  0  0  0  0
 22 25  1  0  0  0  0
 22 40  1  0  0  0  0
 23 29  1  0  0  0  0
 23 41  1  0  0  0  0
 24 30  1  0  0  0  0
 24 42  1  0  0  0  0
 25 26  2  0  0  0  0
 25 43  1  0  0  0  0
 26 44  1  0  0  0  0
 27 28  2  0  0  0  0
 27 45  1  0  0  0  0
 28 46  1  0  0  0  0
 29 30  2  0  0  0  0
 29 47  1  0  0  0  0
 30 48  1  0  0  0  0
M  END
>  <PUBCHEM_COMPOUND_CID>
136019

>  <PUBCHEM_COMPOUND_CANONICALIZED>
1

>  <PUBCHEM_CACTVS_COMPLEXITY>
482

>  <PUBCHEM_CACTVS_HBOND_ACCEPTOR>
0

>  <PUBCHEM_CACTVS_HBOND_DONOR>
0

>  <PUBCHEM_CACTVS_ROTATABLE_BOND>
0

>  <PUBCHEM_CACTVS_SUBSKEYS>
AAADceB4AAAAAAAAAAAAAAAAAAAAAAAAAAAwYMGDAAAAAADBVAAAGAAAAAAADACAGAAwAMAAAACAAiBCAAACAAAgAAAIiAAAAIgIICKAERCAIAAggAAIiAcAgMAOwAACAAAQAACAAAQAACAAAAAAAAAAAA==

>  <PUBCHEM_IUPAC_OPENEYE_NAME>
trinaphthylene

>  <PUBCHEM_IUPAC_CAS_NAME>
trinaphthylene

>  <PUBCHEM_IUPAC_NAME_MARKUP>
trinaphthylene

>  <PUBCHEM_IUPAC_NAME>
trinaphthylene

>  <PUBCHEM_IUPAC_SYSTEMATIC_NAME>
trinaphthylene

>  <PUBCHEM_IUPAC_TRADITIONAL_NAME>
trinaphthylene

>  <PUBCHEM_IUPAC_INCHI>
InChI=1S/C30H18/c1-2-8-20-14-26-25(13-19(20)7-1)27-15-21-9-3-4-11-23(21)17-29(27)30-18-24-12-6-5-10-22(24)16-28(26)30/h1-18H

>  <PUBCHEM_IUPAC_INCHIKEY>
PGXOVVAJURGPLL-UHFFFAOYSA-N

>  <PUBCHEM_XLOGP3_AA>
8.6

>  <PUBCHEM_EXACT_MASS>
378.140850574

>  <PUBCHEM_MOLECULAR_FORMULA>
C30H18

>  <PUBCHEM_MOLECULAR_WEIGHT>
378.5

>  <PUBCHEM_CACTVS_TPSA>
0

>  <PUBCHEM_MONOISOTOPIC_WEIGHT>
378.140850574

>  <PUBCHEM_TOTAL_CHARGE>
0

>  <PUBCHEM_HEAVY_ATOM_COUNT>
30

>  <PUBCHEM_ATOM_DEF_STEREO_COUNT>
0

>  <PUBCHEM_ATOM_UDEF_STEREO_COUNT>
0

>  <PUBCHEM_BOND_DEF_STEREO_COUNT>
0

>  <PUBCHEM_BOND_UDEF_STEREO_COUNT>
0

>  <PUBCHEM_ISOTOPIC_ATOM_COUNT>
0

>  <PUBCHEM_COMPONENT_COUNT>
1

>  <PUBCHEM_CACTVS_TAUTO_COUNT>
-1

>  <PUBCHEM_COORDINATE_TYPE>
1
5
255

>  <PUBCHEM_BONDANNOTATIONS>
1  2  8
1  3  8
1  7  8
10  16  8
11  17  8
12  18  8
13  15  8
13  19  8
14  16  8
14  20  8
15  21  8
16  22  8
17  18  8
17  23  8
18  24  8
19  27  8
2  4  8
2  8  8
20  26  8
21  28  8
22  25  8
23  29  8
24  30  8
25  26  8
27  28  8
29  30  8
3  5  8
3  9  8
4  10  8
4  6  8
5  11  8
5  6  8
6  12  8
7  13  8
8  14  8
9  15  8

$$$$
