14711
 OpenBabel02212621332D

 46 48  0  0  1  0  0  0  0  0999 V2000
    4.5981   -1.0173    0.0000 N   0  0  0  0  0  0  0  0  0  0  0  0
    8.0622   -0.0173    0.0000 N   0  0  0  0  0  0  0  0  0  0  0  0
    5.4641    0.4827    0.0000 C   0  0  0  0  0  0  0  0  0  0  0  0
    6.3301    0.9827    0.0000 C   0  0  3  0  0  0  0  0  0  0  0  0
    5.4641   -0.5173    0.0000 C   0  0  0  0  0  0  0  0  0  0  0  0
    6.3301    1.9827    0.0000 C   0  0  0  0  0  0  0  0  0  0  0  0
    7.1962    2.4827    0.0000 C   0  0  0  0  0  0  0  0  0  0  0  0
    4.5981   -2.0173    0.0000 C   0  0  0  0  0  0  0  0  0  0  0  0
    7.1962    3.4827    0.0000 C   0  0  0  0  0  0  0  0  0  0  0  0
    5.4641    2.4827    0.0000 C   0  0  0  0  0  0  0  0  0  0  0  0
    3.7321   -0.5173    0.0000 C   0  0  0  0  0  0  0  0  0  0  0  0
    3.7321   -2.5173    0.0000 C   0  0  0  0  0  0  0  0  0  0  0  0
    8.0901    1.9480    0.0000 C   0  0  0  0  0  0  0  0  0  0  0  0
    6.3301    3.9827    0.0000 C   0  0  0  0  0  0  0  0  0  0  0  0
    7.1962    0.4827    0.0000 C   0  0  0  0  0  0  0  0  0  0  0  0
    5.4641    3.4827    0.0000 C   0  0  0  0  0  0  0  0  0  0  0  0
    8.0901    4.0173    0.0000 C   0  0  0  0  0  0  0  0  0  0  0  0
    8.9962    2.4619    0.0000 C   0  0  0  0  0  0  0  0  0  0  0  0
    2.8660   -2.0173    0.0000 C   0  0  0  0  0  0  0  0  0  0  0  0
    3.7321   -3.5173    0.0000 C   0  0  0  0  0  0  0  0  0  0  0  0
    8.9962    3.5035    0.0000 C   0  0  0  0  0  0  0  0  0  0  0  0
    2.0000   -2.5173    0.0000 C   0  0  0  0  0  0  0  0  0  0  0  0
    2.8660   -4.0173    0.0000 C   0  0  0  0  0  0  0  0  0  0  0  0
    2.0000   -3.5173    0.0000 C   0  0  0  0  0  0  0  0  0  0  0  0
    5.2521    1.0653    0.0000 H   0  0  0  0  0  0  0  0  0  0  0  0
    4.8535    0.3750    0.0000 H   0  0  0  0  0  0  0  0  0  0  0  0
    6.8671    1.2927    0.0000 H   0  0  0  0  0  0  0  0  0  0  0  0
    5.6762   -1.0999    0.0000 H   0  0  0  0  0  0  0  0  0  0  0  0
    6.0747   -0.4097    0.0000 H   0  0  0  0  0  0  0  0  0  0  0  0
    4.8101   -2.5999    0.0000 H   0  0  0  0  0  0  0  0  0  0  0  0
    5.2087   -1.9097    0.0000 H   0  0  0  0  0  0  0  0  0  0  0  0
    4.9272    2.1727    0.0000 H   0  0  0  0  0  0  0  0  0  0  0  0
    4.0421    0.0196    0.0000 H   0  0  0  0  0  0  0  0  0  0  0  0
    3.1951   -0.2073    0.0000 H   0  0  0  0  0  0  0  0  0  0  0  0
    3.4221   -1.0543    0.0000 H   0  0  0  0  0  0  0  0  0  0  0  0
    8.0829    1.3281    0.0000 H   0  0  0  0  0  0  0  0  0  0  0  0
    6.3301    4.6027    0.0000 H   0  0  0  0  0  0  0  0  0  0  0  0
    4.9272    3.7927    0.0000 H   0  0  0  0  0  0  0  0  0  0  0  0
    8.0829    4.6373    0.0000 H   0  0  0  0  0  0  0  0  0  0  0  0
    9.5319    2.1498    0.0000 H   0  0  0  0  0  0  0  0  0  0  0  0
    2.8660   -1.3973    0.0000 H   0  0  0  0  0  0  0  0  0  0  0  0
    4.2690   -3.8273    0.0000 H   0  0  0  0  0  0  0  0  0  0  0  0
    9.5319    3.8156    0.0000 H   0  0  0  0  0  0  0  0  0  0  0  0
    1.4631   -2.2073    0.0000 H   0  0  0  0  0  0  0  0  0  0  0  0
    2.8660   -4.6373    0.0000 H   0  0  0  0  0  0  0  0  0  0  0  0
    1.4631   -3.8273    0.0000 H   0  0  0  0  0  0  0  0  0  0  0  0
  1  5  1  0  0  0  0
  1  8  1  0  0  0  0
  1 11  1  0  0  0  0
  2 15  3  0  0  0  0
  3  4  1  0  0  0  0
  3  5  1  0  0  0  0
  3 25  1  0  0  0  0
  3 26  1  0  0  0  0
  4  6  1  0  0  0  0
  4 15  1  0  0  0  0
  4 27  1  0  0  0  0
  5 28  1  0  0  0  0
  5 29  1  0  0  0  0
  6  7  1  0  0  0  0
  6 10  2  0  0  0  0
  7  9  1  0  0  0  0
  7 13  2  0  0  0  0
  8 12  1  0  0  0  0
  8 30  1  0  0  0  0
  8 31  1  0  0  0  0
  9 14  1  0  0  0  0
  9 17  2  0  0  0  0
 10 16  1  0  0  0  0
 10 32  1  0  0  0  0
 11 33  1  0  0  0  0
 11 34  1  0  0  0  0
 11 35  1  0  0  0  0
 12 19  2  0  0  0  0
 12 20  1  0  0  0  0
 13 18  1  0  0  0  0
 13 36  1  0  0  0  0
 14 16  2  0  0  0  0
 14 37  1  0  0  0  0
 16 38  1  0  0  0  0
 17 21  1  0  0  0  0
 17 39  1  0  0  0  0
 18 21  2  0  0  0  0
 18 40  1  0  0  0  0
 19 22  1  0  0  0  0
 19 41  1  0  0  0  0
 20 23  2  0  0  0  0
 20 42  1  0  0  0  0
 21 43  1  0  0  0  0
 22 24  2  0  0  0  0
 22 44  1  0  0  0  0
 23 24  1  0  0  0  0
 23 45  1  0  0  0  0
 24 46  1  0  0  0  0
M  END
>  <PUBCHEM_COMPOUND_CID>
14711

>  <PUBCHEM_COMPOUND_CANONICALIZED>
1

>  <PUBCHEM_CACTVS_COMPLEXITY>
417

>  <PUBCHEM_CACTVS_HBOND_ACCEPTOR>
2

>  <PUBCHEM_CACTVS_HBOND_DONOR>
0

>  <PUBCHEM_CACTVS_ROTATABLE_BOND>
6

>  <PUBCHEM_CACTVS_SUBSKEYS>
AAADceB7AAAAAAAAAAAAAAAAAAAAAAAAAAAwYMAAAAAAAADBVAAAHAAAAAAADQDBGAQyAMMAAACQBiBCAACCAAAgAAAIiAAIBIgIoCKAkRGEIAhggACIiA8QgMAOgAACAAAQAAAAAAQAACAAAAAAAAAAAA==

>  <PUBCHEM_IUPAC_OPENEYE_NAME>
4-[benzyl(methyl)amino]-2-(1-naphthyl)butanenitrile

>  <PUBCHEM_IUPAC_CAS_NAME>
4-[methyl-(phenylmethyl)amino]-2-(1-naphthalenyl)butanenitrile

>  <PUBCHEM_IUPAC_NAME_MARKUP>
4-[benzyl(methyl)amino]-2-naphthalen-1-ylbutanenitrile

>  <PUBCHEM_IUPAC_NAME>
4-[benzyl(methyl)amino]-2-naphthalen-1-ylbutanenitrile

>  <PUBCHEM_IUPAC_SYSTEMATIC_NAME>
4-[methyl-(phenylmethyl)amino]-2-naphthalen-1-yl-butanenitrile

>  <PUBCHEM_IUPAC_TRADITIONAL_NAME>
4-[benzyl(methyl)amino]-2-(1-naphthyl)butyronitrile

>  <PUBCHEM_IUPAC_INCHI>
InChI=1S/C22H22N2/c1-24(17-18-8-3-2-4-9-18)15-14-20(16-23)22-13-7-11-19-10-5-6-12-21(19)22/h2-13,20H,14-15,17H2,1H3

>  <PUBCHEM_IUPAC_INCHIKEY>
BFQMJUKUPCJANE-UHFFFAOYSA-N

>  <PUBCHEM_XLOGP3_AA>
4.8

>  <PUBCHEM_EXACT_MASS>
314.178298710

>  <PUBCHEM_MOLECULAR_FORMULA>
C22H22N2

>  <PUBCHEM_MOLECULAR_WEIGHT>
314.4

>  <PUBCHEM_CACTVS_TPSA>
27

>  <PUBCHEM_MONOISOTOPIC_WEIGHT>
314.178298710

>  <PUBCHEM_TOTAL_CHARGE>
0

>  <PUBCHEM_HEAVY_ATOM_COUNT>
24

>  <PUBCHEM_ATOM_DEF_STEREO_COUNT>
0

>  <PUBCHEM_ATOM_UDEF_STEREO_COUNT>
1

>  <PUBCHEM_BOND_DEF_STEREO_COUNT>
0

>  <PUBCHEM_BOND_UDEF_STEREO_COUNT>
0

>  <PUBCHEM_ISOTOPIC_ATOM_COUNT>
0

>  <PUBCHEM_COMPONENT_COUNT>
1

>  <PUBCHEM_CACTVS_TAUTO_COUNT>
-1

>  <PUBCHEM_COORDINATE_TYPE>
1
5
255

>  <PUBCHEM_BONDANNOTATIONS>
10  16  8
12  19  8
12  20  8
13  18  8
14  16  8
17  21  8
18  21  8
19  22  8
20  23  8
22  24  8
23  24  8
4  3  3
6  10  8
6  7  8
7  13  8
7  9  8
9  14  8
9  17  8

$$$$
