15417
 OpenBabel02212621332D

 28 29  0  0  0  0  0  0  0  0999 V2000
    2.8090   -0.5000    0.0000 C   0  0  0  0  0  0  0  0  0  0  0  0
    2.8090    0.5000    0.0000 C   0  0  0  0  0  0  0  0  0  0  0  0
    2.0000   -1.0878    0.0000 C   0  0  0  0  0  0  0  0  0  0  0  0
    3.6180   -1.0878    0.0000 C   0  0  0  0  0  0  0  0  0  0  0  0
    3.6180    1.0878    0.0000 C   0  0  0  0  0  0  0  0  0  0  0  0
    2.0000    1.0878    0.0000 C   0  0  0  0  0  0  0  0  0  0  0  0
    2.3090   -2.0388    0.0000 C   0  0  0  0  0  0  0  0  0  0  0  0
    3.3090   -2.0388    0.0000 C   0  0  0  0  0  0  0  0  0  0  0  0
    3.3090    2.0388    0.0000 C   0  0  0  0  0  0  0  0  0  0  0  0
    2.3090    2.0388    0.0000 C   0  0  0  0  0  0  0  0  0  0  0  0
    3.3614   -0.2185    0.0000 H   0  0  0  0  0  0  0  0  0  0  0  0
    3.3614    0.2185    0.0000 H   0  0  0  0  0  0  0  0  0  0  0  0
    1.6900   -0.5508    0.0000 H   0  0  0  0  0  0  0  0  0  0  0  0
    1.4336   -1.3400    0.0000 H   0  0  0  0  0  0  0  0  0  0  0  0
    4.1844   -1.3400    0.0000 H   0  0  0  0  0  0  0  0  0  0  0  0
    3.9280   -0.5508    0.0000 H   0  0  0  0  0  0  0  0  0  0  0  0
    3.9280    0.5508    0.0000 H   0  0  0  0  0  0  0  0  0  0  0  0
    4.1844    1.3400    0.0000 H   0  0  0  0  0  0  0  0  0  0  0  0
    1.4336    1.3400    0.0000 H   0  0  0  0  0  0  0  0  0  0  0  0
    1.6900    0.5508    0.0000 H   0  0  0  0  0  0  0  0  0  0  0  0
    1.7026   -2.1678    0.0000 H   0  0  0  0  0  0  0  0  0  0  0  0
    2.3738   -2.6555    0.0000 H   0  0  0  0  0  0  0  0  0  0  0  0
    3.2442   -2.6555    0.0000 H   0  0  0  0  0  0  0  0  0  0  0  0
    3.9155   -2.1678    0.0000 H   0  0  0  0  0  0  0  0  0  0  0  0
    3.9155    2.1678    0.0000 H   0  0  0  0  0  0  0  0  0  0  0  0
    3.2442    2.6555    0.0000 H   0  0  0  0  0  0  0  0  0  0  0  0
    2.3738    2.6555    0.0000 H   0  0  0  0  0  0  0  0  0  0  0  0
    1.7026    2.1678    0.0000 H   0  0  0  0  0  0  0  0  0  0  0  0
  1  2  1  0  0  0  0
  1  3  1  0  0  0  0
  1  4  1  0  0  0  0
  1 11  1  0  0  0  0
  2  5  1  0  0  0  0
  2  6  1  0  0  0  0
  2 12  1  0  0  0  0
  3  7  1  0  0  0  0
  3 13  1  0  0  0  0
  3 14  1  0  0  0  0
  4  8  1  0  0  0  0
  4 15  1  0  0  0  0
  4 16  1  0  0  0  0
  5  9  1  0  0  0  0
  5 17  1  0  0  0  0
  5 18  1  0  0  0  0
  6 10  1  0  0  0  0
  6 19  1  0  0  0  0
  6 20  1  0  0  0  0
  7  8  1  0  0  0  0
  7 21  1  0  0  0  0
  7 22  1  0  0  0  0
  8 23  1  0  0  0  0
  8 24  1  0  0  0  0
  9 10  1  0  0  0  0
  9 25  1  0  0  0  0
  9 26  1  0  0  0  0
 10 27  1  0  0  0  0
 10 28  1  0  0  0  0
M  END
>  <PUBCHEM_COMPOUND_CID>
15417

>  <PUBCHEM_COMPOUND_CANONICALIZED>
1

>  <PUBCHEM_CACTVS_COMPLEXITY>
80.6

>  <PUBCHEM_CACTVS_HBOND_ACCEPTOR>
0

>  <PUBCHEM_CACTVS_HBOND_DONOR>
0

>  <PUBCHEM_CACTVS_ROTATABLE_BOND>
1

>  <PUBCHEM_CACTVS_SUBSKEYS>
AAADceBwAAAAAAAAAAAAAAAAAAAAAYMAAAAAAAAAAAAAAAAAAAAAGAAAAAAADQCAAAAAAAAAAAAAAAAAAAAAAAAAAAAAAAAAAAAAAAIAAAAAAAAAAAAAAAEAgMAOgAAAAAAAAAAAAAAAAAAAAAAAAAAAAA==

>  <PUBCHEM_IUPAC_OPENEYE_NAME>
cyclopentylcyclopentane

>  <PUBCHEM_IUPAC_CAS_NAME>
cyclopentylcyclopentane

>  <PUBCHEM_IUPAC_NAME_MARKUP>
cyclopentylcyclopentane

>  <PUBCHEM_IUPAC_NAME>
cyclopentylcyclopentane

>  <PUBCHEM_IUPAC_SYSTEMATIC_NAME>
cyclopentylcyclopentane

>  <PUBCHEM_IUPAC_TRADITIONAL_NAME>
cyclopentylcyclopentane

>  <PUBCHEM_IUPAC_INCHI>
InChI=1S/C10H18/c1-2-6-9(5-1)10-7-3-4-8-10/h9-10H,1-8H2

>  <PUBCHEM_IUPAC_INCHIKEY>
MAWOHFOSAIXURX-UHFFFAOYSA-N

>  <PUBCHEM_XLOGP3_AA>
4.6

>  <PUBCHEM_EXACT_MASS>
138.140850574

>  <PUBCHEM_MOLECULAR_FORMULA>
C10H18

>  <PUBCHEM_MOLECULAR_WEIGHT>
138.25

>  <PUBCHEM_CACTVS_TPSA>
0

>  <PUBCHEM_MONOISOTOPIC_WEIGHT>
138.140850574

>  <PUBCHEM_TOTAL_CHARGE>
0

>  <PUBCHEM_HEAVY_ATOM_COUNT>
10

>  <PUBCHEM_ATOM_DEF_STEREO_COUNT>
0

>  <PUBCHEM_ATOM_UDEF_STEREO_COUNT>
0

>  <PUBCHEM_BOND_DEF_STEREO_COUNT>
0

>  <PUBCHEM_BOND_UDEF_STEREO_COUNT>
0

>  <PUBCHEM_ISOTOPIC_ATOM_COUNT>
0

>  <PUBCHEM_COMPONENT_COUNT>
1

>  <PUBCHEM_CACTVS_TAUTO_COUNT>
-1

>  <PUBCHEM_COORDINATE_TYPE>
1
5
255

$$$$
