15572
 OpenBabel02212621332D

 25 26  0  0  1  0  0  0  0  0999 V2000
    2.2788    0.2063    0.0000 O   0  0  0  0  0  0  0  0  0  0  0  0
    3.8968    0.2063    0.0000 O   0  0  0  0  0  0  0  0  0  0  0  0
    2.4067    2.8799    0.0000 O   0  0  0  0  0  0  0  0  0  0  0  0
    2.5878    1.1573    0.0000 C   0  0  3  0  0  0  0  0  0  0  0  0
    3.0878   -0.3815    0.0000 C   0  0  3  0  0  0  0  0  0  0  0  0
    3.5878    1.1573    0.0000 C   0  0  0  0  0  0  0  0  0  0  0  0
    3.0878   -1.3815    0.0000 C   0  0  0  0  0  0  0  0  0  0  0  0
    2.0000    1.9664    0.0000 C   0  0  0  0  0  0  0  0  0  0  0  0
    2.2218   -1.8815    0.0000 C   0  0  0  0  0  0  0  0  0  0  0  0
    3.9538   -1.8815    0.0000 C   0  0  0  0  0  0  0  0  0  0  0  0
    2.2218   -2.8815    0.0000 C   0  0  0  0  0  0  0  0  0  0  0  0
    3.9538   -2.8815    0.0000 C   0  0  0  0  0  0  0  0  0  0  0  0
    3.0878   -3.3815    0.0000 C   0  0  0  0  0  0  0  0  0  0  0  0
    1.9754    1.0604    0.0000 H   0  0  0  0  0  0  0  0  0  0  0  0
    3.6402   -0.6630    0.0000 H   0  0  0  0  0  0  0  0  0  0  0  0
    4.1942    1.2863    0.0000 H   0  0  0  0  0  0  0  0  0  0  0  0
    3.5230    1.7740    0.0000 H   0  0  0  0  0  0  0  0  0  0  0  0
    1.4860    2.3131    0.0000 H   0  0  0  0  0  0  0  0  0  0  0  0
    1.5693    1.5204    0.0000 H   0  0  0  0  0  0  0  0  0  0  0  0
    1.6848   -1.5715    0.0000 H   0  0  0  0  0  0  0  0  0  0  0  0
    4.4908   -1.5715    0.0000 H   0  0  0  0  0  0  0  0  0  0  0  0
    1.6848   -3.1915    0.0000 H   0  0  0  0  0  0  0  0  0  0  0  0
    4.4908   -3.1915    0.0000 H   0  0  0  0  0  0  0  0  0  0  0  0
    2.0423    3.3815    0.0000 H   0  0  0  0  0  0  0  0  0  0  0  0
    3.0878   -4.0015    0.0000 H   0  0  0  0  0  0  0  0  0  0  0  0
  1  4  1  0  0  0  0
  1  5  1  0  0  0  0
  2  5  1  0  0  0  0
  2  6  1  0  0  0  0
  3  8  1  0  0  0  0
  3 24  1  0  0  0  0
  4  6  1  0  0  0  0
  4  8  1  0  0  0  0
  4 14  1  0  0  0  0
  5  7  1  0  0  0  0
  5 15  1  0  0  0  0
  6 16  1  0  0  0  0
  6 17  1  0  0  0  0
  7  9  2  0  0  0  0
  7 10  1  0  0  0  0
  8 18  1  0  0  0  0
  8 19  1  0  0  0  0
  9 11  1  0  0  0  0
  9 20  1  0  0  0  0
 10 12  2  0  0  0  0
 10 21  1  0  0  0  0
 11 13  2  0  0  0  0
 11 22  1  0  0  0  0
 12 13  1  0  0  0  0
 12 23  1  0  0  0  0
 13 25  1  0  0  0  0
M  END
>  <PUBCHEM_COMPOUND_CID>
15572

>  <PUBCHEM_COMPOUND_CANONICALIZED>
1

>  <PUBCHEM_CACTVS_COMPLEXITY>
154

>  <PUBCHEM_CACTVS_HBOND_ACCEPTOR>
3

>  <PUBCHEM_CACTVS_HBOND_DONOR>
1

>  <PUBCHEM_CACTVS_ROTATABLE_BOND>
2

>  <PUBCHEM_CACTVS_SUBSKEYS>
AAADccBwMAAAAAAAAAAAAAAAAAAAASAAAAAwAAAAAAAAAAABAAAAGgAACAAADBSwmAMwCIAABgCAAiBCAAACAAAgAAAIiAAACIgZNiKAMRiicAAlwAEPqAeAwCAOAAAAAAAAAAAAAAAAAAAAAAAAAAAAAA==

>  <PUBCHEM_IUPAC_OPENEYE_NAME>
(2-phenyl-1,3-dioxolan-4-yl)methanol

>  <PUBCHEM_IUPAC_CAS_NAME>
(2-phenyl-1,3-dioxolan-4-yl)methanol

>  <PUBCHEM_IUPAC_NAME_MARKUP>
(2-phenyl-1,3-dioxolan-4-yl)methanol

>  <PUBCHEM_IUPAC_NAME>
(2-phenyl-1,3-dioxolan-4-yl)methanol

>  <PUBCHEM_IUPAC_SYSTEMATIC_NAME>
(2-phenyl-1,3-dioxolan-4-yl)methanol

>  <PUBCHEM_IUPAC_TRADITIONAL_NAME>
(2-phenyl-1,3-dioxolan-4-yl)methanol

>  <PUBCHEM_IUPAC_INCHI>
InChI=1S/C10H12O3/c11-6-9-7-12-10(13-9)8-4-2-1-3-5-8/h1-5,9-11H,6-7H2

>  <PUBCHEM_IUPAC_INCHIKEY>
AUDDNHGBAJNKEH-UHFFFAOYSA-N

>  <PUBCHEM_XLOGP3_AA>
0.7

>  <PUBCHEM_EXACT_MASS>
180.078644241

>  <PUBCHEM_MOLECULAR_FORMULA>
C10H12O3

>  <PUBCHEM_MOLECULAR_WEIGHT>
180.20

>  <PUBCHEM_CACTVS_TPSA>
38.7

>  <PUBCHEM_MONOISOTOPIC_WEIGHT>
180.078644241

>  <PUBCHEM_TOTAL_CHARGE>
0

>  <PUBCHEM_HEAVY_ATOM_COUNT>
13

>  <PUBCHEM_ATOM_DEF_STEREO_COUNT>
0

>  <PUBCHEM_ATOM_UDEF_STEREO_COUNT>
2

>  <PUBCHEM_BOND_DEF_STEREO_COUNT>
0

>  <PUBCHEM_BOND_UDEF_STEREO_COUNT>
0

>  <PUBCHEM_ISOTOPIC_ATOM_COUNT>
0

>  <PUBCHEM_COMPONENT_COUNT>
1

>  <PUBCHEM_CACTVS_TAUTO_COUNT>
-1

>  <PUBCHEM_COORDINATE_TYPE>
1
5
255

>  <PUBCHEM_BONDANNOTATIONS>
10  12  8
11  13  8
12  13  8
4  8  3
5  7  3
7  10  8
7  9  8
9  11  8

$$$$
