16683082
 OpenBabel02212621332D

 44 48  0  0  1  0  0  0  0  0999 V2000
    3.8911    3.8357    0.0000 Sb  0  5  3  0  0  0  0  0  0  0  0  0
    1.7369    2.2706    0.0000 Sb  0  5  3  0  0  0  0  0  0  0  0  0
    2.8911    3.8357    0.0000 O   0  0  0  0  0  0  0  0  0  0  0  0
    3.5821    2.8847    0.0000 O   0  0  0  0  0  0  0  0  0  0  0  0
    1.4259    3.2388    0.0000 O   0  0  0  0  0  0  0  0  0  0  0  0
    2.5616    1.6757    0.0000 O   0  0  0  0  0  0  0  0  0  0  0  0
    4.2001    4.7868    0.0000 O   0  0  0  0  0  0  0  0  0  0  0  0
    4.8911    3.8357    0.0000 O   0  0  0  0  0  0  0  0  0  0  0  0
    0.8438    2.7385    0.0000 O   0  0  0  0  0  0  0  0  0  0  0  0
    1.9059    1.2766    0.0000 O   0  0  0  0  0  0  0  0  0  0  0  0
    3.3911    6.3746    0.0000 O   0  0  0  0  0  0  0  0  0  0  0  0
    6.1511    2.5756    0.0000 O   0  0  0  0  0  0  0  0  0  0  0  0
    0.0000    4.2728    0.0000 O   0  0  0  0  0  0  0  0  0  0  0  0
    3.1044    0.0000    0.0000 O   0  0  0  0  0  0  0  0  0  0  0  0
    2.2096   11.0032    0.0000 O   0  0  0  0  0  0  0  0  0  0  0  0
    3.9416   12.0032    0.0000 N   0  0  0  0  0  0  0  0  0  0  0  0
    2.5821    4.7868    0.0000 C   0  0  3  0  0  0  0  0  0  0  0  0
    4.3911    2.2969    0.0000 C   0  0  3  0  0  0  0  0  0  0  0  0
    1.7497    4.2027    0.0000 C   0  0  3  0  0  0  0  0  0  0  0  0
    3.5784    1.6857    0.0000 C   0  0  3  0  0  0  0  0  0  0  0  0
    3.3911    5.3746    0.0000 C   0  0  0  0  0  0  0  0  0  0  0  0
    5.2001    2.8847    0.0000 C   0  0  0  0  0  0  0  0  0  0  0  0
    0.8504    3.7467    0.0000 C   0  0  0  0  0  0  0  0  0  0  0  0
    2.8668    0.9714    0.0000 C   0  0  0  0  0  0  0  0  0  0  0  0
    3.9416   11.0032    0.0000 C   0  0  0  0  0  0  0  0  0  0  0  0
    3.0756   10.5032    0.0000 C   0  0  0  0  0  0  0  0  0  0  0  0
    4.8076   10.5032    0.0000 C   0  0  0  0  0  0  0  0  0  0  0  0
    3.0756    9.5032    0.0000 C   0  0  0  0  0  0  0  0  0  0  0  0
    4.8076    9.5032    0.0000 C   0  0  0  0  0  0  0  0  0  0  0  0
    3.9416    9.0032    0.0000 C   0  0  0  0  0  0  0  0  0  0  0  0
    1.3435   10.5032    0.0000 C   0  0  0  0  0  0  0  0  0  0  0  0
    2.2218    5.2913    0.0000 H   0  0  0  0  0  0  0  0  0  0  0  0
    4.7596    1.7983    0.0000 H   0  0  0  0  0  0  0  0  0  0  0  0
    1.4306    4.7343    0.0000 H   0  0  0  0  0  0  0  0  0  0  0  0
    3.9854    1.2180    0.0000 H   0  0  0  0  0  0  0  0  0  0  0  0
    5.3446   10.8132    0.0000 H   0  0  0  0  0  0  0  0  0  0  0  0
    2.5386    9.1932    0.0000 H   0  0  0  0  0  0  0  0  0  0  0  0
    5.3446    9.1932    0.0000 H   0  0  0  0  0  0  0  0  0  0  0  0
    3.9416    8.3832    0.0000 H   0  0  0  0  0  0  0  0  0  0  0  0
    4.4785   12.3132    0.0000 H   0  0  0  0  0  0  0  0  0  0  0  0
    3.4047   12.3132    0.0000 H   0  0  0  0  0  0  0  0  0  0  0  0
    1.0335   11.0401    0.0000 H   0  0  0  0  0  0  0  0  0  0  0  0
    0.8066   10.1932    0.0000 H   0  0  0  0  0  0  0  0  0  0  0  0
    1.6535    9.9662    0.0000 H   0  0  0  0  0  0  0  0  0  0  0  0
  1  3  1  0  0  0  0
  1  4  1  0  0  0  0
  1  7  1  0  0  0  0
  1  8  1  0  0  0  0
  2  5  1  0  0  0  0
  2  6  1  0  0  0  0
  2  9  1  0  0  0  0
  2 10  1  0  0  0  0
  3 17  1  0  0  0  0
  4 18  1  0  0  0  0
  5 19  1  0  0  0  0
  6 20  1  0  0  0  0
  7 21  1  0  0  0  0
  8 22  1  0  0  0  0
  9 23  1  0  0  0  0
 10 24  1  0  0  0  0
 11 21  2  0  0  0  0
 12 22  2  0  0  0  0
 13 23  2  0  0  0  0
 14 24  2  0  0  0  0
 15 26  1  0  0  0  0
 15 31  1  0  0  0  0
 16 25  1  0  0  0  0
 16 40  1  0  0  0  0
 16 41  1  0  0  0  0
 17 19  1  0  0  0  0
 17 21  1  0  0  0  0
 17 32  1  0  0  0  0
 18 20  1  0  0  0  0
 18 22  1  0  0  0  0
 18 33  1  0  0  0  0
 19 23  1  0  0  0  0
 19 34  1  0  0  0  0
 20 24  1  0  0  0  0
 20 35  1  0  0  0  0
 25 26  1  0  0  0  0
 25 27  2  0  0  0  0
 26 28  2  0  0  0  0
 27 29  1  0  0  0  0
 27 36  1  0  0  0  0
 28 30  1  0  0  0  0
 28 37  1  0  0  0  0
 29 30  2  0  0  0  0
 29 38  1  0  0  0  0
 30 39  1  0  0  0  0
 31 42  1  0  0  0  0
 31 43  1  0  0  0  0
 31 44  1  0  0  0  0
M  CHG  2   1  -1   2  -1
M  END
>  <PUBCHEM_COMPOUND_CID>
16683082

>  <PUBCHEM_COMPOUND_CANONICALIZED>
1

>  <PUBCHEM_CACTVS_COMPLEXITY>
632

>  <PUBCHEM_CACTVS_HBOND_ACCEPTOR>
16

>  <PUBCHEM_CACTVS_HBOND_DONOR>
1

>  <PUBCHEM_CACTVS_ROTATABLE_BOND>
1

>  <PUBCHEM_CACTVS_SUBSKEYS>
AAADccByPAAAAAAAAABAAAAAAAAAASJEiQAwAAAAAAAAAACRAAAAHgAQAAAACByhkAIyzoBABACIACTSSAKCCAAgIgAIiAFHbIgPJjaEsZuBMCBl8BEI6AfTQAAAAAAAAAAAEAAAAAAAAAAgAAAAAAAAAA==

>  <PUBCHEM_IUPAC_OPENEYE_NAME>
2-methoxyaniline;2,7,9,14,15,16,17,18-octaoxa-1,8-distibanuidapentacyclo[10.2.1.11,4.15,8.18,11]octadecane-3,6,10,13-tetrone

>  <PUBCHEM_IUPAC_CAS_NAME>
2-methoxyaniline;2,7,9,14,15,16,17,18-octaoxa-1,8-distibanuidapentacyclo[10.2.1.11,4.15,8.18,11]octadecane-3,6,10,13-tetrone

>  <PUBCHEM_IUPAC_NAME_MARKUP>
2-methoxyaniline;2,7,9,14,15,16,17,18-octaoxa-1,8-distibanuidapentacyclo[10.2.1.1<SUP>1,4</SUP>.1<SUP>5,8</SUP>.1<SUP>8,11</SUP>]octadecane-3,6,10,13-tetrone

>  <PUBCHEM_IUPAC_NAME>
2-methoxyaniline;2,7,9,14,15,16,17,18-octaoxa-1,8-distibanuidapentacyclo[10.2.1.11,4.15,8.18,11]octadecane-3,6,10,13-tetrone

>  <PUBCHEM_IUPAC_SYSTEMATIC_NAME>
2-methoxyaniline;2,7,9,14,15,16,17,18-octaoxa-1,8-distibanuidapentacyclo[10.2.1.11,4.15,8.18,11]octadecane-3,6,10,13-tetrone

>  <PUBCHEM_IUPAC_TRADITIONAL_NAME>
o-anisidine;2,7,9,14,15,16,17,18-octaoxa-1,8-distibanuidapentacyclo[10.2.1.11,4.15,8.18,11]octadecane-3,6,10,13-diquinone

>  <PUBCHEM_IUPAC_INCHI>
InChI=1S/C7H9NO.2C4H4O6.2Sb/c1-9-7-5-3-2-4-6(7)8;2*5-1(3(7)8)2(6)4(9)10;;/h2-5H,8H2,1H3;2*1-2H,(H,7,8)(H,9,10);;/q;2*-2;2*+3/p-4

>  <PUBCHEM_IUPAC_INCHIKEY>
YUPMPOGSJOWVJW-UHFFFAOYSA-J

>  <PUBCHEM_EXACT_MASS>
658.84672

>  <PUBCHEM_MOLECULAR_FORMULA>
C15H13NO13Sb2-2

>  <PUBCHEM_MOLECULAR_WEIGHT>
658.78

>  <PUBCHEM_CACTVS_TPSA>
177

>  <PUBCHEM_MONOISOTOPIC_WEIGHT>
656.84631

>  <PUBCHEM_TOTAL_CHARGE>
-2

>  <PUBCHEM_HEAVY_ATOM_COUNT>
31

>  <PUBCHEM_ATOM_DEF_STEREO_COUNT>
0

>  <PUBCHEM_ATOM_UDEF_STEREO_COUNT>
4

>  <PUBCHEM_BOND_DEF_STEREO_COUNT>
0

>  <PUBCHEM_BOND_UDEF_STEREO_COUNT>
0

>  <PUBCHEM_ISOTOPIC_ATOM_COUNT>
0

>  <PUBCHEM_COMPONENT_COUNT>
2

>  <PUBCHEM_CACTVS_TAUTO_COUNT>
-1

>  <PUBCHEM_COORDINATE_TYPE>
1
5
255

>  <PUBCHEM_BONDANNOTATIONS>
17  21  3
18  22  3
19  23  3
20  24  3
25  26  8
25  27  8
26  28  8
27  29  8
28  30  8
29  30  8

$$$$
