16683076
 OpenBabel02212621332D

  4  3  0  0  0  0  0  0  0  0999 V2000
    4.5981    0.0000    0.0000 Hg  0  0  0  0  0  0  0  0  0  0  0  0
    3.7321    0.5000    0.0000 N   0  0  0  0  0  0  0  0  0  0  0  0
    2.8660    0.0000    0.0000 N   0  3  0  0  0  0  0  0  0  0  0  0
    2.0000   -0.5000    0.0000 N   0  5  0  0  0  0  0  0  0  0  0  0
  1  2  1  0  0  0  0
  2  3  2  0  0  0  0
  3  4  2  0  0  0  0
M  CHG  2   3   1   4  -1
M  END
>  <PUBCHEM_COMPOUND_CID>
16683076

>  <PUBCHEM_COMPOUND_CANONICALIZED>
1

>  <PUBCHEM_CACTVS_COMPLEXITY>
41.2

>  <PUBCHEM_CACTVS_HBOND_ACCEPTOR>
2

>  <PUBCHEM_CACTVS_HBOND_DONOR>
0

>  <PUBCHEM_CACTVS_ROTATABLE_BOND>
0

>  <PUBCHEM_CACTVS_SUBSKEYS>
AAADcQADAAAAAAAAAAAAAQAAAAAAAAAAAAAAAAAAAAAAAAAAAAAAAAAIAAAAAAAAAAAAAAAAAAACAAAAAAAAAAAAAAAAAAAAAAAAAAAAAAAAAAAAAAAAAAAAAAAAAAAAAAAAAAAAAAAAAAAAAAAAAAAAAA==

>  <PUBCHEM_IUPAC_OPENEYE_NAME>
azidomercury

>  <PUBCHEM_IUPAC_CAS_NAME>
azidomercury

>  <PUBCHEM_IUPAC_NAME_MARKUP>
azidomercury

>  <PUBCHEM_IUPAC_NAME>
azidomercury

>  <PUBCHEM_IUPAC_SYSTEMATIC_NAME>
azidomercury

>  <PUBCHEM_IUPAC_TRADITIONAL_NAME>
azidomercury

>  <PUBCHEM_IUPAC_INCHI>
InChI=1S/Hg.N3/c;1-3-2/q+1;-1

>  <PUBCHEM_IUPAC_INCHIKEY>
NZJRLCPXRZLFGU-UHFFFAOYSA-N

>  <PUBCHEM_EXACT_MASS>
243.979866

>  <PUBCHEM_MOLECULAR_FORMULA>
HgN3

>  <PUBCHEM_MOLECULAR_WEIGHT>
242.61

>  <PUBCHEM_CACTVS_TPSA>
14.4

>  <PUBCHEM_MONOISOTOPIC_WEIGHT>
243.979866

>  <PUBCHEM_TOTAL_CHARGE>
0

>  <PUBCHEM_HEAVY_ATOM_COUNT>
4

>  <PUBCHEM_ATOM_DEF_STEREO_COUNT>
0

>  <PUBCHEM_ATOM_UDEF_STEREO_COUNT>
0

>  <PUBCHEM_BOND_DEF_STEREO_COUNT>
0

>  <PUBCHEM_BOND_UDEF_STEREO_COUNT>
1

>  <PUBCHEM_ISOTOPIC_ATOM_COUNT>
0

>  <PUBCHEM_COMPONENT_COUNT>
1

>  <PUBCHEM_CACTVS_TAUTO_COUNT>
-1

>  <PUBCHEM_COORDINATE_TYPE>
1
5
255

>  <PUBCHEM_BONDANNOTATIONS>
2  3  1

$$$$
