171064
 OpenBabel02212621332D

 63 66  0  0  1  0  0  0  0  0999 V2000
    8.6541    0.9719    0.0000 O   0  0  0  0  0  0  0  0  0  0  0  0
    8.6500   -2.3961    0.0000 O   0  0  0  0  0  0  0  0  0  0  0  0
    7.1011   -3.0376    0.0000 O   0  0  0  0  0  0  0  0  0  0  0  0
    5.4506   -2.0321    0.0000 O   0  0  0  0  0  0  0  0  0  0  0  0
    4.8576   -1.7865    0.0000 O   0  0  0  0  0  0  0  0  0  0  0  0
    2.3791    0.4367    0.0000 O   0  0  0  0  0  0  0  0  0  0  0  0
    3.1630   -1.4557    0.0000 O   0  0  0  0  0  0  0  0  0  0  0  0
    8.6541    2.7040    0.0000 O   0  0  0  0  0  0  0  0  0  0  0  0
    7.2715    1.8958    0.0000 C   0  0  2  0  0  0  0  0  0  0  0  0
    6.3476    2.2785    0.0000 C   0  0  1  0  0  0  0  0  0  0  0  0
    7.6541    0.9719    0.0000 C   0  0  2  0  0  0  0  0  0  0  0  0
    5.4237    1.8958    0.0000 C   0  0  0  0  0  0  0  0  0  0  0  0
    7.2715    0.0481    0.0000 C   0  0  0  0  0  0  0  0  0  0  0  0
    5.0410    0.9719    0.0000 C   0  0  0  0  0  0  0  0  0  0  0  0
    6.3476   -0.3346    0.0000 C   0  0  0  0  0  0  0  0  0  0  0  0
    7.9786    2.6029    0.0000 C   0  0  0  0  0  0  0  0  0  0  0  0
    6.3476    3.2785    0.0000 C   0  0  0  0  0  0  0  0  0  0  0  0
    5.4237    0.0481    0.0000 C   0  0  0  0  0  0  0  0  0  0  0  0
    8.1075   -0.5732    0.0000 C   0  0  0  0  0  0  0  0  0  0  0  0
    6.1957   -1.3651    0.0000 C   0  0  0  0  0  0  0  0  0  0  0  0
    4.0105    1.1238    0.0000 C   0  0  0  0  0  0  0  0  0  0  0  0
    4.8024   -0.7880    0.0000 C   0  0  0  0  0  0  0  0  0  0  0  0
    7.9795   -1.6070    0.0000 C   0  0  0  0  0  0  0  0  0  0  0  0
    7.0172   -2.0056    0.0000 C   0  0  0  0  0  0  0  0  0  0  0  0
    3.3701    0.3023    0.0000 C   0  0  0  0  0  0  0  0  0  0  0  0
    3.7687   -0.6600    0.0000 C   0  0  0  0  0  0  0  0  0  0  0  0
    9.1541    1.8380    0.0000 C   0  0  0  0  0  0  0  0  0  0  0  0
    8.1082   -3.2785    0.0000 C   0  0  0  0  0  0  0  0  0  0  0  0
   10.1541    1.8380    0.0000 C   0  0  0  0  0  0  0  0  0  0  0  0
    5.6558   -3.0109    0.0000 C   0  0  0  0  0  0  0  0  0  0  0  0
    4.0205   -2.3335    0.0000 C   0  0  0  0  0  0  0  0  0  0  0  0
    2.0000    1.3620    0.0000 C   0  0  0  0  0  0  0  0  0  0  0  0
    2.1710   -1.3290    0.0000 C   0  0  0  0  0  0  0  0  0  0  0  0
    7.8795    1.7749    0.0000 H   0  0  0  0  0  0  0  0  0  0  0  0
    6.8631    2.6230    0.0000 H   0  0  0  0  0  0  0  0  0  0  0  0
    7.9986    0.4564    0.0000 H   0  0  0  0  0  0  0  0  0  0  0  0
    5.3428    2.5105    0.0000 H   0  0  0  0  0  0  0  0  0  0  0  0
    4.8090    1.9767    0.0000 H   0  0  0  0  0  0  0  0  0  0  0  0
    8.4170    2.1645    0.0000 H   0  0  0  0  0  0  0  0  0  0  0  0
    8.4170    3.0413    0.0000 H   0  0  0  0  0  0  0  0  0  0  0  0
    7.5402    3.0413    0.0000 H   0  0  0  0  0  0  0  0  0  0  0  0
    6.9676    3.2785    0.0000 H   0  0  0  0  0  0  0  0  0  0  0  0
    6.3476    3.8985    0.0000 H   0  0  0  0  0  0  0  0  0  0  0  0
    5.7276    3.2785    0.0000 H   0  0  0  0  0  0  0  0  0  0  0  0
    8.6775   -0.3294    0.0000 H   0  0  0  0  0  0  0  0  0  0  0  0
    3.7799    1.6993    0.0000 H   0  0  0  0  0  0  0  0  0  0  0  0
    7.9014   -3.8630    0.0000 H   0  0  0  0  0  0  0  0  0  0  0  0
    8.6677   -3.5456    0.0000 H   0  0  0  0  0  0  0  0  0  0  0  0
   10.1541    1.2180    0.0000 H   0  0  0  0  0  0  0  0  0  0  0  0
   10.7741    1.8380    0.0000 H   0  0  0  0  0  0  0  0  0  0  0  0
   10.1541    2.4580    0.0000 H   0  0  0  0  0  0  0  0  0  0  0  0
    5.0490   -3.1381    0.0000 H   0  0  0  0  0  0  0  0  0  0  0  0
    5.7830   -3.6177    0.0000 H   0  0  0  0  0  0  0  0  0  0  0  0
    6.2626   -2.8837    0.0000 H   0  0  0  0  0  0  0  0  0  0  0  0
    3.6813   -1.8146    0.0000 H   0  0  0  0  0  0  0  0  0  0  0  0
    3.5015   -2.6727    0.0000 H   0  0  0  0  0  0  0  0  0  0  0  0
    4.3597   -2.8525    0.0000 H   0  0  0  0  0  0  0  0  0  0  0  0
    2.5737    1.5971    0.0000 H   0  0  0  0  0  0  0  0  0  0  0  0
    1.7650    1.9357    0.0000 H   0  0  0  0  0  0  0  0  0  0  0  0
    1.4263    1.1270    0.0000 H   0  0  0  0  0  0  0  0  0  0  0  0
    2.2496   -0.7140    0.0000 H   0  0  0  0  0  0  0  0  0  0  0  0
    1.5560   -1.2504    0.0000 H   0  0  0  0  0  0  0  0  0  0  0  0
    2.0925   -1.9440    0.0000 H   0  0  0  0  0  0  0  0  0  0  0  0
  1 27  1  0  0  0  0
  2 23  1  0  0  0  0
  2 28  1  0  0  0  0
  3 24  1  0  0  0  0
  3 28  1  0  0  0  0
  4 20  1  0  0  0  0
  4 30  1  0  0  0  0
  5 22  1  0  0  0  0
  5 31  1  0  0  0  0
  6 25  1  0  0  0  0
  6 32  1  0  0  0  0
  7 26  1  0  0  0  0
  7 33  1  0  0  0  0
  8 27  2  0  0  0  0
  9 10  1  0  0  0  0
  9 11  1  0  0  0  0
  9 16  1  0  0  0  0
  9 34  1  6  0  0  0
 10 12  1  0  0  0  0
 10 17  1  0  0  0  0
 10 35  1  6  0  0  0
 11  1  1  0  0  0  0
 11 13  1  0  0  0  0
 11 36  1  6  0  0  0
 12 14  1  0  0  0  0
 12 37  1  0  0  0  0
 12 38  1  0  0  0  0
 13 15  1  0  0  0  0
 13 19  2  0  0  0  0
 14 18  1  0  0  0  0
 14 21  2  0  0  0  0
 15 18  1  0  0  0  0
 15 20  2  0  0  0  0
 16 39  1  0  0  0  0
 16 40  1  0  0  0  0
 16 41  1  0  0  0  0
 17 42  1  0  0  0  0
 17 43  1  0  0  0  0
 17 44  1  0  0  0  0
 18 22  2  0  0  0  0
 19 23  1  0  0  0  0
 19 45  1  0  0  0  0
 20 24  1  0  0  0  0
 21 25  1  0  0  0  0
 21 46  1  0  0  0  0
 22 26  1  0  0  0  0
 23 24  2  0  0  0  0
 25 26  2  0  0  0  0
 27 29  1  0  0  0  0
 28 47  1  0  0  0  0
 28 48  1  0  0  0  0
 29 49  1  0  0  0  0
 29 50  1  0  0  0  0
 29 51  1  0  0  0  0
 30 52  1  0  0  0  0
 30 53  1  0  0  0  0
 30 54  1  0  0  0  0
 31 55  1  0  0  0  0
 31 56  1  0  0  0  0
 31 57  1  0  0  0  0
 32 58  1  0  0  0  0
 32 59  1  0  0  0  0
 32 60  1  0  0  0  0
 33 61  1  0  0  0  0
 33 62  1  0  0  0  0
 33 63  1  0  0  0  0
M  END
>  <PUBCHEM_COMPOUND_CID>
171064

>  <PUBCHEM_COMPOUND_CANONICALIZED>
1

>  <PUBCHEM_CACTVS_COMPLEXITY>
673

>  <PUBCHEM_CACTVS_HBOND_ACCEPTOR>
8

>  <PUBCHEM_CACTVS_HBOND_DONOR>
0

>  <PUBCHEM_CACTVS_ROTATABLE_BOND>
6

>  <PUBCHEM_CACTVS_SUBSKEYS>
AAADceB4PAAAAAAAAAAAAAAAAAAAASAAAAAwYAAAAAAYAEgBQAAAGgAAAAAADRSgmAMyDoAABACIAiDSCAACCAAgIAAAiAAGiIgdJyKEMRqiMCIlwBUOqAfA4PwOoAABCAAYQABAAAIQADCAAAAAAAAAAA==

>  <PUBCHEM_IUPAC_OPENEYE_NAME>
[(9R,10R,11R)-3,4,5,19-tetramethoxy-9,10-dimethyl-15,17-dioxatetracyclo[10.7.0.02,7.014,18]nonadeca-1(19),2,4,6,12,14(18)-hexaen-11-yl] acetate

>  <PUBCHEM_IUPAC_CAS_NAME>
acetic acid [(9R,10R,11R)-3,4,5,19-tetramethoxy-9,10-dimethyl-15,17-dioxatetracyclo[10.7.0.02,7.014,18]nonadeca-1(19),2,4,6,12,14(18)-hexaen-11-yl] ester

>  <PUBCHEM_IUPAC_NAME_MARKUP>
[(9<I>R</I>,10<I>R</I>,11<I>R</I>)-3,4,5,19-tetramethoxy-9,10-dimethyl-15,17-dioxatetracyclo[10.7.0.0<SUP>2,7</SUP>.0<SUP>14,18</SUP>]nonadeca-1(19),2,4,6,12,14(18)-hexaen-11-yl] acetate

>  <PUBCHEM_IUPAC_NAME>
[(9R,10R,11R)-3,4,5,19-tetramethoxy-9,10-dimethyl-15,17-dioxatetracyclo[10.7.0.02,7.014,18]nonadeca-1(19),2,4,6,12,14(18)-hexaen-11-yl] acetate

>  <PUBCHEM_IUPAC_SYSTEMATIC_NAME>
[(9R,10R,11R)-3,4,5,19-tetramethoxy-9,10-dimethyl-15,17-dioxatetracyclo[10.7.0.02,7.014,18]nonadeca-1(19),2,4,6,12,14(18)-hexaen-11-yl] ethanoate

>  <PUBCHEM_IUPAC_TRADITIONAL_NAME>
acetic acid [(9R,10R,11R)-3,4,5,19-tetramethoxy-9,10-dimethyl-15,17-dioxatetracyclo[10.7.0.02,7.014,18]nonadeca-1(19),2,4,6,12,14(18)-hexaen-11-yl] ester

>  <PUBCHEM_IUPAC_INCHI>
InChI=1S/C25H30O8/c1-12-8-15-9-17(27-4)22(28-5)24(29-6)19(15)20-16(21(13(12)2)33-14(3)26)10-18-23(25(20)30-7)32-11-31-18/h9-10,12-13,21H,8,11H2,1-7H3/t12-,13-,21-/m1/s1

>  <PUBCHEM_IUPAC_INCHIKEY>
QUGMSTJBNZWXQS-SQHYZVFZSA-N

>  <PUBCHEM_XLOGP3_AA>
4.6

>  <PUBCHEM_EXACT_MASS>
458.19406791

>  <PUBCHEM_MOLECULAR_FORMULA>
C25H30O8

>  <PUBCHEM_MOLECULAR_WEIGHT>
458.5

>  <PUBCHEM_CACTVS_TPSA>
81.7

>  <PUBCHEM_MONOISOTOPIC_WEIGHT>
458.19406791

>  <PUBCHEM_TOTAL_CHARGE>
0

>  <PUBCHEM_HEAVY_ATOM_COUNT>
33

>  <PUBCHEM_ATOM_DEF_STEREO_COUNT>
3

>  <PUBCHEM_ATOM_UDEF_STEREO_COUNT>
0

>  <PUBCHEM_BOND_DEF_STEREO_COUNT>
0

>  <PUBCHEM_BOND_UDEF_STEREO_COUNT>
0

>  <PUBCHEM_ISOTOPIC_ATOM_COUNT>
0

>  <PUBCHEM_COMPONENT_COUNT>
1

>  <PUBCHEM_CACTVS_TAUTO_COUNT>
-1

>  <PUBCHEM_COORDINATE_TYPE>
1
5
255

>  <PUBCHEM_BONDANNOTATIONS>
11  1  5
10  17  5
13  15  8
13  19  8
14  18  8
14  21  8
15  20  8
18  22  8
19  23  8
20  24  8
21  25  8
22  26  8
23  24  8
25  26  8
9  16  5

$$$$
