22231
 OpenBabel02212621332D

 35 38  0  0  0  0  0  0  0  0999 V2000
    4.6660   -1.7464    0.0000 N   0  0  0  0  0  0  0  0  0  0  0  0
    4.6660    1.2536    0.0000 N   0  0  0  0  0  0  0  0  0  0  0  0
    5.5321   -0.2464    0.0000 C   0  0  0  0  0  0  0  0  0  0  0  0
    4.6660    0.2536    0.0000 C   0  0  0  0  0  0  0  0  0  0  0  0
    5.5321   -1.2464    0.0000 C   0  0  0  0  0  0  0  0  0  0  0  0
    3.8000   -0.2464    0.0000 C   0  0  0  0  0  0  0  0  0  0  0  0
    7.3321   -0.2256    0.0000 C   0  0  0  0  0  0  0  0  0  0  0  0
    6.4260    0.2883    0.0000 C   0  0  0  0  0  0  0  0  0  0  0  0
    3.8000   -1.2464    0.0000 C   0  0  0  0  0  0  0  0  0  0  0  0
    6.4260   -1.7811    0.0000 C   0  0  0  0  0  0  0  0  0  0  0  0
    7.3321   -1.2672    0.0000 C   0  0  0  0  0  0  0  0  0  0  0  0
    8.1962    0.2777    0.0000 C   0  0  0  0  0  0  0  0  0  0  0  0
    2.9061    0.2883    0.0000 C   0  0  0  0  0  0  0  0  0  0  0  0
    2.9061   -1.7811    0.0000 C   0  0  0  0  0  0  0  0  0  0  0  0
    2.0000   -0.2256    0.0000 C   0  0  0  0  0  0  0  0  0  0  0  0
    2.0000   -1.2672    0.0000 C   0  0  0  0  0  0  0  0  0  0  0  0
    8.1923    1.2777    0.0000 C   0  0  0  0  0  0  0  0  0  0  0  0
    9.0641   -0.2189    0.0000 C   0  0  0  0  0  0  0  0  0  0  0  0
    9.0564    1.7811    0.0000 C   0  0  0  0  0  0  0  0  0  0  0  0
    9.9282    0.2844    0.0000 C   0  0  0  0  0  0  0  0  0  0  0  0
    9.9243    1.2844    0.0000 C   0  0  0  0  0  0  0  0  0  0  0  0
    6.4188    0.9082    0.0000 H   0  0  0  0  0  0  0  0  0  0  0  0
    6.4188   -2.4010    0.0000 H   0  0  0  0  0  0  0  0  0  0  0  0
    7.8678   -1.5793    0.0000 H   0  0  0  0  0  0  0  0  0  0  0  0
    2.9132    0.9082    0.0000 H   0  0  0  0  0  0  0  0  0  0  0  0
    2.9132   -2.4010    0.0000 H   0  0  0  0  0  0  0  0  0  0  0  0
    4.1291    1.5636    0.0000 H   0  0  0  0  0  0  0  0  0  0  0  0
    5.2030    1.5636    0.0000 H   0  0  0  0  0  0  0  0  0  0  0  0
    1.4643    0.0865    0.0000 H   0  0  0  0  0  0  0  0  0  0  0  0
    1.4643   -1.5793    0.0000 H   0  0  0  0  0  0  0  0  0  0  0  0
    7.6542    1.5857    0.0000 H   0  0  0  0  0  0  0  0  0  0  0  0
    9.0665   -0.8389    0.0000 H   0  0  0  0  0  0  0  0  0  0  0  0
    9.0540    2.4011    0.0000 H   0  0  0  0  0  0  0  0  0  0  0  0
   10.4663   -0.0235    0.0000 H   0  0  0  0  0  0  0  0  0  0  0  0
   10.4601    1.5965    0.0000 H   0  0  0  0  0  0  0  0  0  0  0  0
  1  5  2  0  0  0  0
  1  9  1  0  0  0  0
  2  4  1  0  0  0  0
  2 27  1  0  0  0  0
  2 28  1  0  0  0  0
  3  4  2  0  0  0  0
  3  5  1  0  0  0  0
  3  8  1  0  0  0  0
  4  6  1  0  0  0  0
  5 10  1  0  0  0  0
  6  9  1  0  0  0  0
  6 13  2  0  0  0  0
  7  8  2  0  0  0  0
  7 11  1  0  0  0  0
  7 12  1  0  0  0  0
  8 22  1  0  0  0  0
  9 14  2  0  0  0  0
 10 11  2  0  0  0  0
 10 23  1  0  0  0  0
 11 24  1  0  0  0  0
 12 17  2  0  0  0  0
 12 18  1  0  0  0  0
 13 15  1  0  0  0  0
 13 25  1  0  0  0  0
 14 16  1  0  0  0  0
 14 26  1  0  0  0  0
 15 16  2  0  0  0  0
 15 29  1  0  0  0  0
 16 30  1  0  0  0  0
 17 19  1  0  0  0  0
 17 31  1  0  0  0  0
 18 20  2  0  0  0  0
 18 32  1  0  0  0  0
 19 21  2  0  0  0  0
 19 33  1  0  0  0  0
 20 21  1  0  0  0  0
 20 34  1  0  0  0  0
 21 35  1  0  0  0  0
M  END
>  <PUBCHEM_COMPOUND_CID>
22231

>  <PUBCHEM_COMPOUND_CANONICALIZED>
1

>  <PUBCHEM_CACTVS_COMPLEXITY>
349

>  <PUBCHEM_CACTVS_HBOND_ACCEPTOR>
2

>  <PUBCHEM_CACTVS_HBOND_DONOR>
1

>  <PUBCHEM_CACTVS_ROTATABLE_BOND>
1

>  <PUBCHEM_CACTVS_SUBSKEYS>
AAADccB7AAAAAAAAAAAAAAAAAAAAAAAAAAA8YMEAAAAAAACx/AAAHAAQAAAADAiBHgAwwPJIEACgAyRiRACCgCAhAiAImCAwZJgIIOLA0dGEJAhggADIyAcQgMAOiAACAAACAAAQAAQAAAQAAAAAAAAAAA==

>  <PUBCHEM_IUPAC_OPENEYE_NAME>
2-phenylacridin-9-amine

>  <PUBCHEM_IUPAC_CAS_NAME>
2-phenyl-9-acridinamine

>  <PUBCHEM_IUPAC_NAME_MARKUP>
2-phenylacridin-9-amine

>  <PUBCHEM_IUPAC_NAME>
2-phenylacridin-9-amine

>  <PUBCHEM_IUPAC_SYSTEMATIC_NAME>
2-phenylacridin-9-amine

>  <PUBCHEM_IUPAC_TRADITIONAL_NAME>
(2-phenylacridin-9-yl)amine

>  <PUBCHEM_IUPAC_INCHI>
InChI=1S/C19H14N2/c20-19-15-8-4-5-9-17(15)21-18-11-10-14(12-16(18)19)13-6-2-1-3-7-13/h1-12H,(H2,20,21)

>  <PUBCHEM_IUPAC_INCHIKEY>
YHGAGMNSWODGFY-UHFFFAOYSA-N

>  <PUBCHEM_XLOGP3_AA>
4.5

>  <PUBCHEM_EXACT_MASS>
270.115698455

>  <PUBCHEM_MOLECULAR_FORMULA>
C19H14N2

>  <PUBCHEM_MOLECULAR_WEIGHT>
270.3

>  <PUBCHEM_CACTVS_TPSA>
38.9

>  <PUBCHEM_MONOISOTOPIC_WEIGHT>
270.115698455

>  <PUBCHEM_TOTAL_CHARGE>
0

>  <PUBCHEM_HEAVY_ATOM_COUNT>
21

>  <PUBCHEM_ATOM_DEF_STEREO_COUNT>
0

>  <PUBCHEM_ATOM_UDEF_STEREO_COUNT>
0

>  <PUBCHEM_BOND_DEF_STEREO_COUNT>
0

>  <PUBCHEM_BOND_UDEF_STEREO_COUNT>
0

>  <PUBCHEM_ISOTOPIC_ATOM_COUNT>
0

>  <PUBCHEM_COMPONENT_COUNT>
1

>  <PUBCHEM_CACTVS_TAUTO_COUNT>
-1

>  <PUBCHEM_COORDINATE_TYPE>
1
5
255

>  <PUBCHEM_BONDANNOTATIONS>
1  5  8
1  9  8
10  11  8
12  17  8
12  18  8
13  15  8
14  16  8
15  16  8
17  19  8
18  20  8
19  21  8
20  21  8
3  4  8
3  5  8
3  8  8
4  6  8
5  10  8
6  13  8
6  9  8
7  11  8
7  8  8
9  14  8

$$$$
