3032639
 OpenBabel02212621332D

 24 21  0  0  0  0  0  0  0  0999 V2000
    1.7690    0.0000    0.0000 Au  0  3  0  0  0  0  0  0  0  0  0  0
    2.7690    0.0000    0.0000 Cl  0  5  0  0  0  0  0  0  0  0  0  0
    2.2690    4.5369    0.0000 P   0  0  0  0  0  0  0  0  0  0  0  0
    3.1350    5.0369    0.0000 C   0  0  0  0  0  0  0  0  0  0  0  0
    1.4030    5.0369    0.0000 C   0  0  0  0  0  0  0  0  0  0  0  0
    2.2690    3.5369    0.0000 C   0  0  0  0  0  0  0  0  0  0  0  0
    4.0010    4.5369    0.0000 C   0  0  0  0  0  0  0  0  0  0  0  0
    0.5369    4.5369    0.0000 C   0  0  0  0  0  0  0  0  0  0  0  0
    1.4030    3.0369    0.0000 C   0  0  0  0  0  0  0  0  0  0  0  0
    3.5335    5.5119    0.0000 H   0  0  0  0  0  0  0  0  0  0  0  0
    2.7365    5.5119    0.0000 H   0  0  0  0  0  0  0  0  0  0  0  0
    1.8015    5.5119    0.0000 H   0  0  0  0  0  0  0  0  0  0  0  0
    1.0044    5.5119    0.0000 H   0  0  0  0  0  0  0  0  0  0  0  0
    2.4810    2.9543    0.0000 H   0  0  0  0  0  0  0  0  0  0  0  0
    2.8796    3.6446    0.0000 H   0  0  0  0  0  0  0  0  0  0  0  0
    3.6910    4.0000    0.0000 H   0  0  0  0  0  0  0  0  0  0  0  0
    4.5380    4.2269    0.0000 H   0  0  0  0  0  0  0  0  0  0  0  0
    4.3110    5.0739    0.0000 H   0  0  0  0  0  0  0  0  0  0  0  0
    0.2269    5.0739    0.0000 H   0  0  0  0  0  0  0  0  0  0  0  0
    0.0000    4.2269    0.0000 H   0  0  0  0  0  0  0  0  0  0  0  0
    0.8469    4.0000    0.0000 H   0  0  0  0  0  0  0  0  0  0  0  0
    1.0930    3.5739    0.0000 H   0  0  0  0  0  0  0  0  0  0  0  0
    0.8660    2.7269    0.0000 H   0  0  0  0  0  0  0  0  0  0  0  0
    1.7130    2.5000    0.0000 H   0  0  0  0  0  0  0  0  0  0  0  0
  3  4  1  0  0  0  0
  3  5  1  0  0  0  0
  3  6  1  0  0  0  0
  4  7  1  0  0  0  0
  4 10  1  0  0  0  0
  4 11  1  0  0  0  0
  5  8  1  0  0  0  0
  5 12  1  0  0  0  0
  5 13  1  0  0  0  0
  6  9  1  0  0  0  0
  6 14  1  0  0  0  0
  6 15  1  0  0  0  0
  7 16  1  0  0  0  0
  7 17  1  0  0  0  0
  7 18  1  0  0  0  0
  8 19  1  0  0  0  0
  8 20  1  0  0  0  0
  8 21  1  0  0  0  0
  9 22  1  0  0  0  0
  9 23  1  0  0  0  0
  9 24  1  0  0  0  0
M  CHG  2   1   1   2  -1
M  END
>  <PUBCHEM_COMPOUND_CID>
3032639

>  <PUBCHEM_COMPOUND_CANONICALIZED>
1

>  <PUBCHEM_CACTVS_COMPLEXITY>
25.7

>  <PUBCHEM_CACTVS_HBOND_ACCEPTOR>
1

>  <PUBCHEM_CACTVS_HBOND_DONOR>
0

>  <PUBCHEM_CACTVS_ROTATABLE_BOND>
3

>  <PUBCHEM_CACTVS_SUBSKEYS>
AAADccBgAAIEAAAAAAAAAgAAAAAAAAAAAAAAAAAAAAAAAAAAAAAAGAgAAAAAAACIAAACAAAAACAAAAAAAAAAAAAAAAAAAAAAAAAAAAAAAAAAAAAAAAAAAAAAAAAAAAAAAAAAAAAAAAAAAAAAAAAAAAAAAA==

>  <PUBCHEM_IUPAC_OPENEYE_NAME>
gold(1+);triethylphosphane;chloride

>  <PUBCHEM_IUPAC_CAS_NAME>
gold(1+);triethylphosphine;chloride

>  <PUBCHEM_IUPAC_NAME_MARKUP>
gold(1+);triethylphosphane;chloride

>  <PUBCHEM_IUPAC_NAME>
gold(1+);triethylphosphane;chloride

>  <PUBCHEM_IUPAC_SYSTEMATIC_NAME>
gold(1+);triethylphosphane;chloride

>  <PUBCHEM_IUPAC_TRADITIONAL_NAME>
gold(1+);triethylphosphine;chloride

>  <PUBCHEM_IUPAC_INCHI>
InChI=1S/C6H15P.Au.ClH/c1-4-7(5-2)6-3;;/h4-6H2,1-3H3;;1H/q;+1;/p-1

>  <PUBCHEM_IUPAC_INCHIKEY>
SYBBXLKWGHAVHP-UHFFFAOYSA-M

>  <PUBCHEM_EXACT_MASS>
350.026560

>  <PUBCHEM_MOLECULAR_FORMULA>
C6H15AuClP

>  <PUBCHEM_MOLECULAR_WEIGHT>
350.58

>  <PUBCHEM_CACTVS_TPSA>
0

>  <PUBCHEM_MONOISOTOPIC_WEIGHT>
350.026560

>  <PUBCHEM_TOTAL_CHARGE>
0

>  <PUBCHEM_HEAVY_ATOM_COUNT>
9

>  <PUBCHEM_ATOM_DEF_STEREO_COUNT>
0

>  <PUBCHEM_ATOM_UDEF_STEREO_COUNT>
0

>  <PUBCHEM_BOND_DEF_STEREO_COUNT>
0

>  <PUBCHEM_BOND_UDEF_STEREO_COUNT>
0

>  <PUBCHEM_ISOTOPIC_ATOM_COUNT>
0

>  <PUBCHEM_COMPONENT_COUNT>
3

>  <PUBCHEM_CACTVS_TAUTO_COUNT>
-1

>  <PUBCHEM_COORDINATE_TYPE>
1
5
255

$$$$
