5287580
 OpenBabel02212621332D

 14 13  0  0  1  0  0  0  0  0999 V2000
    5.1350    0.0000    0.0000 O   0  0  0  0  0  0  0  0  0  0  0  0
    4.2690    1.5000    0.0000 O   0  0  0  0  0  0  0  0  0  0  0  0
    2.5369    0.5000    0.0000 N   0  0  0  0  0  0  0  0  0  0  0  0
    3.4030    0.0000    0.0000 C   0  0  2  0  0  0  0  0  0  0  0  0
    3.4030   -1.0000    0.0000 C   0  0  0  0  0  0  0  0  0  0  0  0
    4.2690    0.5000    0.0000 C   0  0  0  0  0  0  0  0  0  0  0  0
    2.5369   -1.5000    0.0000 C   0  0  0  0  0  0  0  0  0  0  0  0
    3.4030    0.6200    0.0000 H   0  0  0  0  0  0  0  0  0  0  0  0
    3.9399   -1.3100    0.0000 H   0  0  0  0  0  0  0  0  0  0  0  0
    2.0000    0.1900    0.0000 H   0  0  0  0  0  0  0  0  0  0  0  0
    2.5369    1.1200    0.0000 H   0  0  0  0  0  0  0  0  0  0  0  0
    2.0000   -1.1900    0.0000 H   0  0  0  0  0  0  0  0  0  0  0  0
    2.5369   -2.1200    0.0000 H   0  0  0  0  0  0  0  0  0  0  0  0
    5.6720    0.3100    0.0000 H   0  0  0  0  0  0  0  0  0  0  0  0
  1  6  1  0  0  0  0
  1 14  1  0  0  0  0
  2  6  2  0  0  0  0
  3 10  1  0  0  0  0
  3 11  1  0  0  0  0
  4  3  1  0  0  0  0
  4  5  1  0  0  0  0
  4  6  1  0  0  0  0
  4  8  1  6  0  0  0
  5  7  2  0  0  0  0
  5  9  1  0  0  0  0
  7 12  1  0  0  0  0
  7 13  1  0  0  0  0
M  END
>  <PUBCHEM_COMPOUND_CID>
5287580

>  <PUBCHEM_COMPOUND_CANONICALIZED>
1

>  <PUBCHEM_CACTVS_COMPLEXITY>
89.7

>  <PUBCHEM_CACTVS_HBOND_ACCEPTOR>
3

>  <PUBCHEM_CACTVS_HBOND_DONOR>
2

>  <PUBCHEM_CACTVS_ROTATABLE_BOND>
2

>  <PUBCHEM_CACTVS_SUBSKEYS>
AAADcYBiMAAAAAAAAAAAAAAAAAAAAAAAAAAAAAAAAAAAAAAAAAAAHgAQCAAACCjBgAQACABAAgCIACDSCACAAAAgAAAIAIGAAAgCAAAAAQAAQAAAUAAAAAAAAAAAAAAAAAAAAAAAAAAAAAAAAAAAAAAAAA==

>  <PUBCHEM_IUPAC_OPENEYE_NAME>
(2R)-2-aminobut-3-enoic acid

>  <PUBCHEM_IUPAC_CAS_NAME>
(2R)-2-amino-3-butenoic acid

>  <PUBCHEM_IUPAC_NAME_MARKUP>
(2<I>R</I>)-2-aminobut-3-enoic acid

>  <PUBCHEM_IUPAC_NAME>
(2R)-2-aminobut-3-enoic acid

>  <PUBCHEM_IUPAC_SYSTEMATIC_NAME>
(2R)-2-azanylbut-3-enoic acid

>  <PUBCHEM_IUPAC_TRADITIONAL_NAME>
(2R)-2-aminobut-3-enoic acid

>  <PUBCHEM_IUPAC_INCHI>
InChI=1S/C4H7NO2/c1-2-3(5)4(6)7/h2-3H,1,5H2,(H,6,7)/t3-/m1/s1

>  <PUBCHEM_IUPAC_INCHIKEY>
RQVLGLPAZTUBKX-GSVOUGTGSA-N

>  <PUBCHEM_XLOGP3_AA>
-2.6

>  <PUBCHEM_EXACT_MASS>
101.047678466

>  <PUBCHEM_MOLECULAR_FORMULA>
C4H7NO2

>  <PUBCHEM_MOLECULAR_WEIGHT>
101.10

>  <PUBCHEM_CACTVS_TPSA>
63.3

>  <PUBCHEM_MONOISOTOPIC_WEIGHT>
101.047678466

>  <PUBCHEM_TOTAL_CHARGE>
0

>  <PUBCHEM_HEAVY_ATOM_COUNT>
7

>  <PUBCHEM_ATOM_DEF_STEREO_COUNT>
1

>  <PUBCHEM_ATOM_UDEF_STEREO_COUNT>
0

>  <PUBCHEM_BOND_DEF_STEREO_COUNT>
0

>  <PUBCHEM_BOND_UDEF_STEREO_COUNT>
0

>  <PUBCHEM_ISOTOPIC_ATOM_COUNT>
0

>  <PUBCHEM_COMPONENT_COUNT>
1

>  <PUBCHEM_CACTVS_TAUTO_COUNT>
-1

>  <PUBCHEM_COORDINATE_TYPE>
1
5
255

>  <PUBCHEM_BONDANNOTATIONS>
4  3  5

$$$$
