5287579
 OpenBabel02212621332D

 14 13  0  0  1  0  0  0  0  0999 V2000
    5.1350    0.0000    0.0000 O   0  5  0  0  0  0  0  0  0  0  0  0
    4.2690    1.5000    0.0000 O   0  0  0  0  0  0  0  0  0  0  0  0
    2.5369    0.5000    0.0000 N   0  3  0  0  0  0  0  0  0  0  0  0
    3.4030    0.0000    0.0000 C   0  0  2  0  0  0  0  0  0  0  0  0
    3.4030   -1.0000    0.0000 C   0  0  0  0  0  0  0  0  0  0  0  0
    4.2690    0.5000    0.0000 C   0  0  0  0  0  0  0  0  0  0  0  0
    4.2690   -1.5000    0.0000 C   0  0  0  0  0  0  0  0  0  0  0  0
    3.4030    0.6200    0.0000 H   0  0  0  0  0  0  0  0  0  0  0  0
    2.0000    0.8100    0.0000 H   0  0  0  0  0  0  0  0  0  0  0  0
    2.2269   -0.0369    0.0000 H   0  0  0  0  0  0  0  0  0  0  0  0
    2.8469    1.0369    0.0000 H   0  0  0  0  0  0  0  0  0  0  0  0
    2.8660   -1.3100    0.0000 H   0  0  0  0  0  0  0  0  0  0  0  0
    4.2690   -2.1200    0.0000 H   0  0  0  0  0  0  0  0  0  0  0  0
    4.8059   -1.1900    0.0000 H   0  0  0  0  0  0  0  0  0  0  0  0
  1  6  1  0  0  0  0
  2  6  2  0  0  0  0
  3  9  1  0  0  0  0
  3 10  1  0  0  0  0
  3 11  1  0  0  0  0
  4  3  1  0  0  0  0
  4  5  1  0  0  0  0
  4  6  1  0  0  0  0
  4  8  1  6  0  0  0
  5  7  2  0  0  0  0
  5 12  1  0  0  0  0
  7 13  1  0  0  0  0
  7 14  1  0  0  0  0
M  CHG  2   1  -1   3   1
M  END
>  <PUBCHEM_COMPOUND_CID>
5287579

>  <PUBCHEM_COMPOUND_CANONICALIZED>
1

>  <PUBCHEM_CACTVS_COMPLEXITY>
84.2

>  <PUBCHEM_CACTVS_HBOND_ACCEPTOR>
2

>  <PUBCHEM_CACTVS_HBOND_DONOR>
1

>  <PUBCHEM_CACTVS_ROTATABLE_BOND>
1

>  <PUBCHEM_CACTVS_SUBSKEYS>
AAADcYBiMAAAAAAAAAAAAAAAAAAAAAAAAAAAAAAAAAAAAAAAAAAAHgAQAAAACCjBgAQACABAAACIACDSCACAAAAgAAAIAIGAAAgCAAAAAQAAAAAAUAAAAAAAAAAAAAAAAAAAAAAAAAAAAAAAAAAAAAAAAA==

>  <PUBCHEM_IUPAC_OPENEYE_NAME>
(2R)-2-azaniumylbut-3-enoate

>  <PUBCHEM_IUPAC_CAS_NAME>
(2R)-2-ammonio-3-butenoate

>  <PUBCHEM_IUPAC_NAME_MARKUP>
(2<I>R</I>)-2-azaniumylbut-3-enoate

>  <PUBCHEM_IUPAC_NAME>
(2R)-2-azaniumylbut-3-enoate

>  <PUBCHEM_IUPAC_SYSTEMATIC_NAME>
(2R)-2-azaniumylbut-3-enoate

>  <PUBCHEM_IUPAC_TRADITIONAL_NAME>
(2R)-2-ammoniobut-3-enoate

>  <PUBCHEM_IUPAC_INCHI>
InChI=1S/C4H7NO2/c1-2-3(5)4(6)7/h2-3H,1,5H2,(H,6,7)/t3-/m1/s1

>  <PUBCHEM_IUPAC_INCHIKEY>
RQVLGLPAZTUBKX-GSVOUGTGSA-N

>  <PUBCHEM_XLOGP3_AA>
-1.9

>  <PUBCHEM_EXACT_MASS>
101.047678466

>  <PUBCHEM_MOLECULAR_FORMULA>
C4H7NO2

>  <PUBCHEM_MOLECULAR_WEIGHT>
101.10

>  <PUBCHEM_CACTVS_TPSA>
67.8

>  <PUBCHEM_MONOISOTOPIC_WEIGHT>
101.047678466

>  <PUBCHEM_TOTAL_CHARGE>
0

>  <PUBCHEM_HEAVY_ATOM_COUNT>
7

>  <PUBCHEM_ATOM_DEF_STEREO_COUNT>
1

>  <PUBCHEM_ATOM_UDEF_STEREO_COUNT>
0

>  <PUBCHEM_BOND_DEF_STEREO_COUNT>
0

>  <PUBCHEM_BOND_UDEF_STEREO_COUNT>
0

>  <PUBCHEM_ISOTOPIC_ATOM_COUNT>
0

>  <PUBCHEM_COMPONENT_COUNT>
1

>  <PUBCHEM_CACTVS_TAUTO_COUNT>
-1

>  <PUBCHEM_COORDINATE_TYPE>
1
5
255

>  <PUBCHEM_BONDANNOTATIONS>
4  3  5

$$$$
