7614
 OpenBabel02212621332D

 36 35  0  0  1  0  0  0  0  0999 V2000
    4.5981    1.4400    0.0000 O   0  0  0  0  0  0  0  0  0  0  0  0
    2.0000    0.9400    0.0000 O   0  0  0  0  0  0  0  0  0  0  0  0
    6.3301    1.4400    0.0000 C   0  0  0  0  0  0  0  0  0  0  0  0
    5.4641    0.9400    0.0000 C   0  0  3  0  0  0  0  0  0  0  0  0
    7.1962    0.9400    0.0000 C   0  0  0  0  0  0  0  0  0  0  0  0
    5.4641   -0.0600    0.0000 C   0  0  0  0  0  0  0  0  0  0  0  0
    8.0622    1.4400    0.0000 C   0  0  0  0  0  0  0  0  0  0  0  0
    7.1962   -0.0600    0.0000 C   0  0  0  0  0  0  0  0  0  0  0  0
    4.5981   -0.5600    0.0000 C   0  0  0  0  0  0  0  0  0  0  0  0
    4.5981   -1.5600    0.0000 C   0  0  0  0  0  0  0  0  0  0  0  0
    3.7321    0.9400    0.0000 C   0  0  0  0  0  0  0  0  0  0  0  0
    3.7321   -2.0600    0.0000 C   0  0  0  0  0  0  0  0  0  0  0  0
    5.4641   -2.0600    0.0000 C   0  0  0  0  0  0  0  0  0  0  0  0
    2.8660    1.4400    0.0000 C   0  0  0  0  0  0  0  0  0  0  0  0
    6.7287    1.9150    0.0000 H   0  0  0  0  0  0  0  0  0  0  0  0
    5.9316    1.9150    0.0000 H   0  0  0  0  0  0  0  0  0  0  0  0
    4.9272    0.6300    0.0000 H   0  0  0  0  0  0  0  0  0  0  0  0
    6.6592    0.6300    0.0000 H   0  0  0  0  0  0  0  0  0  0  0  0
    5.6762   -0.6426    0.0000 H   0  0  0  0  0  0  0  0  0  0  0  0
    6.0747    0.0477    0.0000 H   0  0  0  0  0  0  0  0  0  0  0  0
    8.3722    0.9031    0.0000 H   0  0  0  0  0  0  0  0  0  0  0  0
    8.5991    1.7500    0.0000 H   0  0  0  0  0  0  0  0  0  0  0  0
    7.7522    1.9769    0.0000 H   0  0  0  0  0  0  0  0  0  0  0  0
    6.5762   -0.0600    0.0000 H   0  0  0  0  0  0  0  0  0  0  0  0
    7.1962   -0.6800    0.0000 H   0  0  0  0  0  0  0  0  0  0  0  0
    7.8162   -0.0600    0.0000 H   0  0  0  0  0  0  0  0  0  0  0  0
    4.0611   -0.2500    0.0000 H   0  0  0  0  0  0  0  0  0  0  0  0
    3.3335    0.4651    0.0000 H   0  0  0  0  0  0  0  0  0  0  0  0
    4.1306    0.4651    0.0000 H   0  0  0  0  0  0  0  0  0  0  0  0
    3.4221   -1.5231    0.0000 H   0  0  0  0  0  0  0  0  0  0  0  0
    3.1951   -2.3700    0.0000 H   0  0  0  0  0  0  0  0  0  0  0  0
    4.0421   -2.5969    0.0000 H   0  0  0  0  0  0  0  0  0  0  0  0
    5.1541   -2.5969    0.0000 H   0  0  0  0  0  0  0  0  0  0  0  0
    6.0010   -2.3700    0.0000 H   0  0  0  0  0  0  0  0  0  0  0  0
    5.7741   -1.5231    0.0000 H   0  0  0  0  0  0  0  0  0  0  0  0
    2.8660    2.0600    0.0000 H   0  0  0  0  0  0  0  0  0  0  0  0
  1  4  1  0  0  0  0
  1 11  1  0  0  0  0
  2 14  2  0  0  0  0
  3  4  1  0  0  0  0
  3  5  1  0  0  0  0
  3 15  1  0  0  0  0
  3 16  1  0  0  0  0
  4  6  1  0  0  0  0
  4 17  1  0  0  0  0
  5  7  1  0  0  0  0
  5  8  1  0  0  0  0
  5 18  1  0  0  0  0
  6  9  1  0  0  0  0
  6 19  1  0  0  0  0
  6 20  1  0  0  0  0
  7 21  1  0  0  0  0
  7 22  1  0  0  0  0
  7 23  1  0  0  0  0
  8 24  1  0  0  0  0
  8 25  1  0  0  0  0
  8 26  1  0  0  0  0
  9 10  2  0  0  0  0
  9 27  1  0  0  0  0
 10 12  1  0  0  0  0
 10 13  1  0  0  0  0
 11 14  1  0  0  0  0
 11 28  1  0  0  0  0
 11 29  1  0  0  0  0
 12 30  1  0  0  0  0
 12 31  1  0  0  0  0
 12 32  1  0  0  0  0
 13 33  1  0  0  0  0
 13 34  1  0  0  0  0
 13 35  1  0  0  0  0
 14 36  1  0  0  0  0
M  END
>  <PUBCHEM_COMPOUND_CID>
7614

>  <PUBCHEM_COMPOUND_CANONICALIZED>
1

>  <PUBCHEM_CACTVS_COMPLEXITY>
179

>  <PUBCHEM_CACTVS_HBOND_ACCEPTOR>
2

>  <PUBCHEM_CACTVS_HBOND_DONOR>
0

>  <PUBCHEM_CACTVS_ROTATABLE_BOND>
7

>  <PUBCHEM_CACTVS_SUBSKEYS>
AAADceBwMAAAAAAAAAAAAAAAAAAAAAAAAAAAAAAAAAAAAAAAAAAAGgAAAAAADRSggAICAAAABACIAihSgAIAAAAgAAAACABAAAgAAAIAAQQCAAAEwAAIAAMAAAAMAAAAAAAAAAAAAAAAAAAAAAAAAAAAAA==

>  <PUBCHEM_IUPAC_OPENEYE_NAME>
2-(1-isobutyl-4-methyl-pent-3-enoxy)acetaldehyde

>  <PUBCHEM_IUPAC_CAS_NAME>
2-(2,7-dimethyloct-6-en-4-yloxy)acetaldehyde

>  <PUBCHEM_IUPAC_NAME_MARKUP>
2-(2,7-dimethyloct-6-en-4-yloxy)acetaldehyde

>  <PUBCHEM_IUPAC_NAME>
2-(2,7-dimethyloct-6-en-4-yloxy)acetaldehyde

>  <PUBCHEM_IUPAC_SYSTEMATIC_NAME>
2-(2,7-dimethyloct-6-en-4-yloxy)ethanal

>  <PUBCHEM_IUPAC_TRADITIONAL_NAME>
2-(1-isobutyl-4-methyl-pent-3-enoxy)acetaldehyde

>  <PUBCHEM_IUPAC_INCHI>
InChI=1S/C12H22O2/c1-10(2)5-6-12(9-11(3)4)14-8-7-13/h5,7,11-12H,6,8-9H2,1-4H3

>  <PUBCHEM_IUPAC_INCHIKEY>
WPZHLSFMGCSZMV-UHFFFAOYSA-N

>  <PUBCHEM_XLOGP3_AA>
3.3

>  <PUBCHEM_EXACT_MASS>
198.161979940

>  <PUBCHEM_MOLECULAR_FORMULA>
C12H22O2

>  <PUBCHEM_MOLECULAR_WEIGHT>
198.30

>  <PUBCHEM_CACTVS_TPSA>
26.3

>  <PUBCHEM_MONOISOTOPIC_WEIGHT>
198.161979940

>  <PUBCHEM_TOTAL_CHARGE>
0

>  <PUBCHEM_HEAVY_ATOM_COUNT>
14

>  <PUBCHEM_ATOM_DEF_STEREO_COUNT>
0

>  <PUBCHEM_ATOM_UDEF_STEREO_COUNT>
1

>  <PUBCHEM_BOND_DEF_STEREO_COUNT>
0

>  <PUBCHEM_BOND_UDEF_STEREO_COUNT>
0

>  <PUBCHEM_ISOTOPIC_ATOM_COUNT>
0

>  <PUBCHEM_COMPONENT_COUNT>
1

>  <PUBCHEM_CACTVS_TAUTO_COUNT>
-1

>  <PUBCHEM_COORDINATE_TYPE>
1
5
255

>  <PUBCHEM_BONDANNOTATIONS>
4  6  3

$$$$
